flow-decomposition/src/test/resources/com/powsybl/flow_decomposition/NETWORK_PARALLEL_LINES_PTDF.uct
##C 2007.05.01
This is a test network with multiple parallel lines to test 5% PTDF computation.
It is used for loop flow decomposition.
##N
##ZFR
FGEN  11 GEN          0 3 400.00 0.00000 0.00000 -100.00 0.00000 1000.00 -1000.0 1000.00 -1000.0
FLOAD 11 LOAD         0 0        100.000 0.00000
##ZBE
BLOAD 11 GEN          0 2 400.00 100.000 0.00000 -100.00 0.00000 1000.00 -1000.0 1000.00 -1000.0
##L
FGEN  11 BLOAD 11 1 0 0.5000 0.0500 0.000000    480 LINE
FLOAD 11 BLOAD 11 1 0 0.5000 0.0500 0.000000    480 LINE
FGEN  11 FLOAD 11 1 0 1.0000 0.1000 0.000000    480 LINE
FGEN  11 FLOAD 11 2 0 1.0000 0.1000 0.000000    480 LINE
FGEN  11 FLOAD 11 3 0 1.0000 0.1000 0.000000    480 LINE
FGEN  11 FLOAD 11 4 0 1.0000 0.1000 0.000000    480 LINE
FGEN  11 FLOAD 11 5 0 1.0000 0.1000 0.000000    480 LINE
FGEN  11 FLOAD 11 6 0 1.0000 0.1000 0.000000    480 LINE
FGEN  11 FLOAD 11 7 0 1.0000 0.1000 0.000000    480 LINE
FGEN  11 FLOAD 11 8 0 1.0000 0.1000 0.000000    480 LINE
FGEN  11 FLOAD 11 9 0 1.0000 0.1000 0.000000    480 LINE
FGEN  11 FLOAD 11 A 0 1.0000 0.1000 0.000000    480 LINE
